<?xml version="1.0" encoding="UTF-8"?>

<additional>
   <chargingStation id="cs_0" lane=":A0_0" startPos="300.00" endPos="400.00" power="42066.0" chargeDelay="2.0">
        <param key="cost" value="8.0"/>
        <param key="power" value="42066.0"/>
        <param key="chargeDelay" value="2.0"/>
    </chargingStation>
   <chargingStation id="cs_1" lane=":A0_0_0" startPos="300.00" endPos="400.00" power="9232.0" chargeDelay="2.0">
        <param key="cost" value="14.0"/>
        <param key="power" value="9232.0"/>
        <param key="chargeDelay" value="2.0"/>
    </chargingStation>
   <chargingStation id="cs_2" lane=":A0_1" startPos="300.00" endPos="400.00" power="39907.0" chargeDelay="1.0">
        <param key="cost" value="8.0"/>
        <param key="power" value="39907.0"/>
        <param key="chargeDelay" value="1.0"/>
    </chargingStation>
   <chargingStation id="cs_3" lane=":A0_1_0" startPos="300.00" endPos="400.00" power="10078.0" chargeDelay="5.0">
        <param key="cost" value="6.0"/>
        <param key="power" value="10078.0"/>
        <param key="chargeDelay" value="5.0"/>
    </chargingStation>
   <chargingStation id="cs_4" lane=":A1_0" startPos="300.00" endPos="400.00" power="28030.0" chargeDelay="2.0">
        <param key="cost" value="7.0"/>
        <param key="power" value="28030.0"/>
        <param key="chargeDelay" value="2.0"/>
    </chargingStation>
   <chargingStation id="cs_5" lane=":A1_0_0" startPos="300.00" endPos="400.00" power="2380.0" chargeDelay="8.0">
        <param key="cost" value="12.0"/>
        <param key="power" value="2380.0"/>
        <param key="chargeDelay" value="8.0"/>
    </chargingStation>
   <chargingStation id="cs_6" lane=":A1_1" startPos="300.00" endPos="400.00" power="12681.0" chargeDelay="7.0">
        <param key="cost" value="15.0"/>
        <param key="power" value="12681.0"/>
        <param key="chargeDelay" value="7.0"/>
    </chargingStation>
   <chargingStation id="cs_7" lane=":A1_1_0" startPos="300.00" endPos="400.00" power="17852.0" chargeDelay="6.0">
        <param key="cost" value="6.0"/>
        <param key="power" value="17852.0"/>
        <param key="chargeDelay" value="6.0"/>
    </chargingStation>
   <chargingStation id="cs_8" lane=":A1_2" startPos="300.00" endPos="400.00" power="26608.0" chargeDelay="7.0">
        <param key="cost" value="14.0"/>
        <param key="power" value="26608.0"/>
        <param key="chargeDelay" value="7.0"/>
    </chargingStation>
   <chargingStation id="cs_9" lane=":A1_2_0" startPos="300.00" endPos="400.00" power="11303.0" chargeDelay="5.0">
        <param key="cost" value="12.0"/>
        <param key="power" value="11303.0"/>
        <param key="chargeDelay" value="5.0"/>
    </chargingStation>
   <chargingStation id="cs_10" lane=":A1_9" startPos="300.00" endPos="400.00" power="9687.0" chargeDelay="10.0">
        <param key="cost" value="5.0"/>
        <param key="power" value="9687.0"/>
        <param key="chargeDelay" value="10.0"/>
    </chargingStation>
   <chargingStation id="cs_11" lane=":A1_9_0" startPos="300.00" endPos="400.00" power="27267.0" chargeDelay="1.0">
        <param key="cost" value="9.0"/>
        <param key="power" value="27267.0"/>
        <param key="chargeDelay" value="1.0"/>
    </chargingStation>
   <chargingStation id="cs_12" lane=":A1_10" startPos="300.00" endPos="400.00" power="48427.0" chargeDelay="5.0">
        <param key="cost" value="6.0"/>
        <param key="power" value="48427.0"/>
        <param key="chargeDelay" value="5.0"/>
    </chargingStation>
   <chargingStation id="cs_13" lane=":A1_10_0" startPos="300.00" endPos="400.00" power="5845.0" chargeDelay="6.0">
        <param key="cost" value="13.0"/>
        <param key="power" value="5845.0"/>
        <param key="chargeDelay" value="6.0"/>
    </chargingStation>
   <chargingStation id="cs_14" lane=":A1_3" startPos="300.00" endPos="400.00" power="45467.0" chargeDelay="5.0">
        <param key="cost" value="13.0"/>
        <param key="power" value="45467.0"/>
        <param key="chargeDelay" value="5.0"/>
    </chargingStation>
   <chargingStation id="cs_15" lane=":A1_3_0" startPos="300.00" endPos="400.00" power="42883.0" chargeDelay="6.0">
        <param key="cost" value="9.0"/>
        <param key="power" value="42883.0"/>
        <param key="chargeDelay" value="6.0"/>
    </chargingStation>
   <chargingStation id="cs_16" lane=":A1_4" startPos="300.00" endPos="400.00" power="19547.0" chargeDelay="7.0">
        <param key="cost" value="12.0"/>
        <param key="power" value="19547.0"/>
        <param key="chargeDelay" value="7.0"/>
    </chargingStation>
   <chargingStation id="cs_17" lane=":A1_4_0" startPos="300.00" endPos="400.00" power="36236.0" chargeDelay="3.0">
        <param key="cost" value="6.0"/>
        <param key="power" value="36236.0"/>
        <param key="chargeDelay" value="3.0"/>
    </chargingStation>
   <chargingStation id="cs_18" lane=":A1_5" startPos="300.00" endPos="400.00" power="1335.0" chargeDelay="2.0">
        <param key="cost" value="9.0"/>
        <param key="power" value="1335.0"/>
        <param key="chargeDelay" value="2.0"/>
    </chargingStation>
   <chargingStation id="cs_19" lane=":A1_5_0" startPos="300.00" endPos="400.00" power="46546.0" chargeDelay="7.0">
        <param key="cost" value="11.0"/>
        <param key="power" value="46546.0"/>
        <param key="chargeDelay" value="7.0"/>
    </chargingStation>
   <chargingStation id="cs_20" lane=":A1_6" startPos="300.00" endPos="400.00" power="35411.0" chargeDelay="5.0">
        <param key="cost" value="6.0"/>
        <param key="power" value="35411.0"/>
        <param key="chargeDelay" value="5.0"/>
    </chargingStation>
   <chargingStation id="cs_21" lane=":A1_6_0" startPos="300.00" endPos="400.00" power="11594.0" chargeDelay="6.0">
        <param key="cost" value="7.0"/>
        <param key="power" value="11594.0"/>
        <param key="chargeDelay" value="6.0"/>
    </chargingStation>
   <chargingStation id="cs_22" lane=":A1_7" startPos="300.00" endPos="400.00" power="2252.0" chargeDelay="5.0">
        <param key="cost" value="11.0"/>
        <param key="power" value="2252.0"/>
        <param key="chargeDelay" value="5.0"/>
    </chargingStation>
   <chargingStation id="cs_23" lane=":A1_7_0" startPos="300.00" endPos="400.00" power="30038.0" chargeDelay="2.0">
        <param key="cost" value="11.0"/>
        <param key="power" value="30038.0"/>
        <param key="chargeDelay" value="2.0"/>
    </chargingStation>
   <chargingStation id="cs_24" lane=":A1_8" startPos="300.00" endPos="400.00" power="5778.0" chargeDelay="7.0">
        <param key="cost" value="15.0"/>
        <param key="power" value="5778.0"/>
        <param key="chargeDelay" value="7.0"/>
    </chargingStation>
   <chargingStation id="cs_25" lane=":A1_8_0" startPos="300.00" endPos="400.00" power="22608.0" chargeDelay="2.0">
        <param key="cost" value="5.0"/>
        <param key="power" value="22608.0"/>
        <param key="chargeDelay" value="2.0"/>
    </chargingStation>
   <chargingStation id="cs_26" lane=":A1_11" startPos="300.00" endPos="400.00" power="1467.0" chargeDelay="5.0">
        <param key="cost" value="6.0"/>
        <param key="power" value="1467.0"/>
        <param key="chargeDelay" value="5.0"/>
    </chargingStation>
   <chargingStation id="cs_27" lane=":A1_11_0" startPos="300.00" endPos="400.00" power="3478.0" chargeDelay="8.0">
        <param key="cost" value="7.0"/>
        <param key="power" value="3478.0"/>
        <param key="chargeDelay" value="8.0"/>
    </chargingStation>
   <chargingStation id="cs_28" lane=":A2_0" startPos="300.00" endPos="400.00" power="16532.0" chargeDelay="4.0">
        <param key="cost" value="9.0"/>
        <param key="power" value="16532.0"/>
        <param key="chargeDelay" value="4.0"/>
    </chargingStation>
   <chargingStation id="cs_29" lane=":A2_0_0" startPos="300.00" endPos="400.00" power="42871.0" chargeDelay="2.0">
        <param key="cost" value="10.0"/>
        <param key="power" value="42871.0"/>
        <param key="chargeDelay" value="2.0"/>
    </chargingStation>
   <chargingStation id="cs_30" lane=":A2_1" startPos="300.00" endPos="400.00" power="31172.0" chargeDelay="7.0">
        <param key="cost" value="6.0"/>
        <param key="power" value="31172.0"/>
        <param key="chargeDelay" value="7.0"/>
    </chargingStation>
   <chargingStation id="cs_31" lane=":A2_1_0" startPos="300.00" endPos="400.00" power="47005.0" chargeDelay="3.0">
        <param key="cost" value="10.0"/>
        <param key="power" value="47005.0"/>
        <param key="chargeDelay" value="3.0"/>
    </chargingStation>
   <chargingStation id="cs_32" lane=":A2_2" startPos="300.00" endPos="400.00" power="10491.0" chargeDelay="9.0">
        <param key="cost" value="11.0"/>
        <param key="power" value="10491.0"/>
        <param key="chargeDelay" value="9.0"/>
    </chargingStation>
   <chargingStation id="cs_33" lane=":A2_2_0" startPos="300.00" endPos="400.00" power="41560.0" chargeDelay="4.0">
        <param key="cost" value="13.0"/>
        <param key="power" value="41560.0"/>
        <param key="chargeDelay" value="4.0"/>
    </chargingStation>
   <chargingStation id="cs_34" lane=":A2_9" startPos="300.00" endPos="400.00" power="13379.0" chargeDelay="8.0">
        <param key="cost" value="5.0"/>
        <param key="power" value="13379.0"/>
        <param key="chargeDelay" value="8.0"/>
    </chargingStation>
   <chargingStation id="cs_35" lane=":A2_9_0" startPos="300.00" endPos="400.00" power="22577.0" chargeDelay="4.0">
        <param key="cost" value="13.0"/>
        <param key="power" value="22577.0"/>
        <param key="chargeDelay" value="4.0"/>
    </chargingStation>
   <chargingStation id="cs_36" lane=":A2_10" startPos="300.00" endPos="400.00" power="15049.0" chargeDelay="7.0">
        <param key="cost" value="6.0"/>
        <param key="power" value="15049.0"/>
        <param key="chargeDelay" value="7.0"/>
    </chargingStation>
   <chargingStation id="cs_37" lane=":A2_10_0" startPos="300.00" endPos="400.00" power="25904.0" chargeDelay="5.0">
        <param key="cost" value="9.0"/>
        <param key="power" value="25904.0"/>
        <param key="chargeDelay" value="5.0"/>
    </chargingStation>
   <chargingStation id="cs_38" lane=":A2_3" startPos="300.00" endPos="400.00" power="16242.0" chargeDelay="9.0">
        <param key="cost" value="13.0"/>
        <param key="power" value="16242.0"/>
        <param key="chargeDelay" value="9.0"/>
    </chargingStation>
   <chargingStation id="cs_39" lane=":A2_3_0" startPos="300.00" endPos="400.00" power="1882.0" chargeDelay="7.0">
        <param key="cost" value="6.0"/>
        <param key="power" value="1882.0"/>
        <param key="chargeDelay" value="7.0"/>
    </chargingStation>
   <chargingStation id="cs_40" lane=":A2_4" startPos="300.00" endPos="400.00" power="24017.0" chargeDelay="6.0">
        <param key="cost" value="13.0"/>
        <param key="power" value="24017.0"/>
        <param key="chargeDelay" value="6.0"/>
    </chargingStation>
   <chargingStation id="cs_41" lane=":A2_4_0" startPos="300.00" endPos="400.00" power="29533.0" chargeDelay="3.0">
        <param key="cost" value="5.0"/>
        <param key="power" value="29533.0"/>
        <param key="chargeDelay" value="3.0"/>
    </chargingStation>
   <chargingStation id="cs_42" lane=":A2_5" startPos="300.00" endPos="400.00" power="33634.0" chargeDelay="5.0">
        <param key="cost" value="10.0"/>
        <param key="power" value="33634.0"/>
        <param key="chargeDelay" value="5.0"/>
    </chargingStation>
   <chargingStation id="cs_43" lane=":A2_5_0" startPos="300.00" endPos="400.00" power="34080.0" chargeDelay="1.0">
        <param key="cost" value="14.0"/>
        <param key="power" value="34080.0"/>
        <param key="chargeDelay" value="1.0"/>
    </chargingStation>
   <chargingStation id="cs_44" lane=":A2_6" startPos="300.00" endPos="400.00" power="12709.0" chargeDelay="9.0">
        <param key="cost" value="8.0"/>
        <param key="power" value="12709.0"/>
        <param key="chargeDelay" value="9.0"/>
    </chargingStation>
   <chargingStation id="cs_45" lane=":A2_6_0" startPos="300.00" endPos="400.00" power="18138.0" chargeDelay="5.0">
        <param key="cost" value="13.0"/>
        <param key="power" value="18138.0"/>
        <param key="chargeDelay" value="5.0"/>
    </chargingStation>
   <chargingStation id="cs_46" lane=":A2_7" startPos="300.00" endPos="400.00" power="25722.0" chargeDelay="5.0">
        <param key="cost" value="14.0"/>
        <param key="power" value="25722.0"/>
        <param key="chargeDelay" value="5.0"/>
    </chargingStation>
   <chargingStation id="cs_47" lane=":A2_7_0" startPos="300.00" endPos="400.00" power="12018.0" chargeDelay="8.0">
        <param key="cost" value="11.0"/>
        <param key="power" value="12018.0"/>
        <param key="chargeDelay" value="8.0"/>
    </chargingStation>
   <chargingStation id="cs_48" lane=":A2_8" startPos="300.00" endPos="400.00" power="11615.0" chargeDelay="5.0">
        <param key="cost" value="10.0"/>
        <param key="power" value="11615.0"/>
        <param key="chargeDelay" value="5.0"/>
    </chargingStation>
   <chargingStation id="cs_49" lane=":A2_8_0" startPos="300.00" endPos="400.00" power="3623.0" chargeDelay="1.0">
        <param key="cost" value="9.0"/>
        <param key="power" value="3623.0"/>
        <param key="chargeDelay" value="1.0"/>
    </chargingStation>
   <chargingStation id="cs_50" lane=":A2_11" startPos="300.00" endPos="400.00" power="38910.0" chargeDelay="4.0">
        <param key="cost" value="13.0"/>
        <param key="power" value="38910.0"/>
        <param key="chargeDelay" value="4.0"/>
    </chargingStation>
   <chargingStation id="cs_51" lane=":A2_11_0" startPos="300.00" endPos="400.00" power="45546.0" chargeDelay="6.0">
        <param key="cost" value="11.0"/>
        <param key="power" value="45546.0"/>
        <param key="chargeDelay" value="6.0"/>
    </chargingStation>
   <chargingStation id="cs_52" lane=":A3_0" startPos="300.00" endPos="400.00" power="25822.0" chargeDelay="10.0">
        <param key="cost" value="12.0"/>
        <param key="power" value="25822.0"/>
        <param key="chargeDelay" value="10.0"/>
    </chargingStation>
   <chargingStation id="cs_53" lane=":A3_0_0" startPos="300.00" endPos="400.00" power="20759.0" chargeDelay="3.0">
        <param key="cost" value="8.0"/>
        <param key="power" value="20759.0"/>
        <param key="chargeDelay" value="3.0"/>
    </chargingStation>
   <chargingStation id="cs_54" lane=":A3_1" startPos="300.00" endPos="400.00" power="46406.0" chargeDelay="7.0">
        <param key="cost" value="14.0"/>
        <param key="power" value="46406.0"/>
        <param key="chargeDelay" value="7.0"/>
    </chargingStation>
   <chargingStation id="cs_55" lane=":A3_1_0" startPos="300.00" endPos="400.00" power="38134.0" chargeDelay="6.0">
        <param key="cost" value="5.0"/>
        <param key="power" value="38134.0"/>
        <param key="chargeDelay" value="6.0"/>
    </chargingStation>
   <chargingStation id="cs_56" lane=":A3_2" startPos="300.00" endPos="400.00" power="7739.0" chargeDelay="6.0">
        <param key="cost" value="11.0"/>
        <param key="power" value="7739.0"/>
        <param key="chargeDelay" value="6.0"/>
    </chargingStation>
   <chargingStation id="cs_57" lane=":A3_2_0" startPos="300.00" endPos="400.00" power="37853.0" chargeDelay="1.0">
        <param key="cost" value="10.0"/>
        <param key="power" value="37853.0"/>
        <param key="chargeDelay" value="1.0"/>
    </chargingStation>
   <chargingStation id="cs_58" lane=":A3_9" startPos="300.00" endPos="400.00" power="49017.0" chargeDelay="8.0">
        <param key="cost" value="9.0"/>
        <param key="power" value="49017.0"/>
        <param key="chargeDelay" value="8.0"/>
    </chargingStation>
   <chargingStation id="cs_59" lane=":A3_9_0" startPos="300.00" endPos="400.00" power="19865.0" chargeDelay="1.0">
        <param key="cost" value="5.0"/>
        <param key="power" value="19865.0"/>
        <param key="chargeDelay" value="1.0"/>
    </chargingStation>
   <chargingStation id="cs_60" lane=":A3_10" startPos="300.00" endPos="400.00" power="41839.0" chargeDelay="6.0">
        <param key="cost" value="13.0"/>
        <param key="power" value="41839.0"/>
        <param key="chargeDelay" value="6.0"/>
    </chargingStation>
   <chargingStation id="cs_61" lane=":A3_10_0" startPos="300.00" endPos="400.00" power="28090.0" chargeDelay="3.0">
        <param key="cost" value="6.0"/>
        <param key="power" value="28090.0"/>
        <param key="chargeDelay" value="3.0"/>
    </chargingStation>
   <chargingStation id="cs_62" lane=":A3_3" startPos="300.00" endPos="400.00" power="20532.0" chargeDelay="2.0">
        <param key="cost" value="10.0"/>
        <param key="power" value="20532.0"/>
        <param key="chargeDelay" value="2.0"/>
    </chargingStation>
   <chargingStation id="cs_63" lane=":A3_3_0" startPos="300.00" endPos="400.00" power="25474.0" chargeDelay="3.0">
        <param key="cost" value="8.0"/>
        <param key="power" value="25474.0"/>
        <param key="chargeDelay" value="3.0"/>
    </chargingStation>
   <chargingStation id="cs_64" lane=":A3_4" startPos="300.00" endPos="400.00" power="9560.0" chargeDelay="3.0">
        <param key="cost" value="12.0"/>
        <param key="power" value="9560.0"/>
        <param key="chargeDelay" value="3.0"/>
    </chargingStation>
   <chargingStation id="cs_65" lane=":A3_4_0" startPos="300.00" endPos="400.00" power="42790.0" chargeDelay="7.0">
        <param key="cost" value="8.0"/>
        <param key="power" value="42790.0"/>
        <param key="chargeDelay" value="7.0"/>
    </chargingStation>
   <chargingStation id="cs_66" lane=":A3_5" startPos="300.00" endPos="400.00" power="15180.0" chargeDelay="6.0">
        <param key="cost" value="6.0"/>
        <param key="power" value="15180.0"/>
        <param key="chargeDelay" value="6.0"/>
    </chargingStation>
   <chargingStation id="cs_67" lane=":A3_5_0" startPos="300.00" endPos="400.00" power="13594.0" chargeDelay="8.0">
        <param key="cost" value="15.0"/>
        <param key="power" value="13594.0"/>
        <param key="chargeDelay" value="8.0"/>
    </chargingStation>
   <chargingStation id="cs_68" lane=":A3_6" startPos="300.00" endPos="400.00" power="11483.0" chargeDelay="3.0">
        <param key="cost" value="9.0"/>
        <param key="power" value="11483.0"/>
        <param key="chargeDelay" value="3.0"/>
    </chargingStation>
   <chargingStation id="cs_69" lane=":A3_6_0" startPos="300.00" endPos="400.00" power="11182.0" chargeDelay="2.0">
        <param key="cost" value="7.0"/>
        <param key="power" value="11182.0"/>
        <param key="chargeDelay" value="2.0"/>
    </chargingStation>
   <chargingStation id="cs_70" lane=":A3_7" startPos="300.00" endPos="400.00" power="49667.0" chargeDelay="7.0">
        <param key="cost" value="12.0"/>
        <param key="power" value="49667.0"/>
        <param key="chargeDelay" value="7.0"/>
    </chargingStation>
   <chargingStation id="cs_71" lane=":A3_7_0" startPos="300.00" endPos="400.00" power="40590.0" chargeDelay="3.0">
        <param key="cost" value="8.0"/>
        <param key="power" value="40590.0"/>
        <param key="chargeDelay" value="3.0"/>
    </chargingStation>
   <chargingStation id="cs_72" lane=":A3_8" startPos="300.00" endPos="400.00" power="28756.0" chargeDelay="2.0">
        <param key="cost" value="11.0"/>
        <param key="power" value="28756.0"/>
        <param key="chargeDelay" value="2.0"/>
    </chargingStation>
   <chargingStation id="cs_73" lane=":A3_8_0" startPos="300.00" endPos="400.00" power="40004.0" chargeDelay="5.0">
        <param key="cost" value="11.0"/>
        <param key="power" value="40004.0"/>
        <param key="chargeDelay" value="5.0"/>
    </chargingStation>
   <chargingStation id="cs_74" lane=":A3_11" startPos="300.00" endPos="400.00" power="34713.0" chargeDelay="6.0">
        <param key="cost" value="15.0"/>
        <param key="power" value="34713.0"/>
        <param key="chargeDelay" value="6.0"/>
    </chargingStation>
   <chargingStation id="cs_75" lane=":A3_11_0" startPos="300.00" endPos="400.00" power="45809.0" chargeDelay="7.0">
        <param key="cost" value="15.0"/>
        <param key="power" value="45809.0"/>
        <param key="chargeDelay" value="7.0"/>
    </chargingStation>
   <chargingStation id="cs_76" lane=":A4_0" startPos="300.00" endPos="400.00" power="18197.0" chargeDelay="9.0">
        <param key="cost" value="9.0"/>
        <param key="power" value="18197.0"/>
        <param key="chargeDelay" value="9.0"/>
    </chargingStation>
   <chargingStation id="cs_77" lane=":A4_0_0" startPos="300.00" endPos="400.00" power="13188.0" chargeDelay="1.0">
        <param key="cost" value="12.0"/>
        <param key="power" value="13188.0"/>
        <param key="chargeDelay" value="1.0"/>
    </chargingStation>
   <chargingStation id="cs_78" lane=":A4_1" startPos="300.00" endPos="400.00" power="37953.0" chargeDelay="5.0">
        <param key="cost" value="11.0"/>
        <param key="power" value="37953.0"/>
        <param key="chargeDelay" value="5.0"/>
    </chargingStation>
   <chargingStation id="cs_79" lane=":A4_1_0" startPos="300.00" endPos="400.00" power="37527.0" chargeDelay="9.0">
        <param key="cost" value="11.0"/>
        <param key="power" value="37527.0"/>
        <param key="chargeDelay" value="9.0"/>
    </chargingStation>
   <chargingStation id="cs_80" lane=":B0_0" startPos="300.00" endPos="400.00" power="5761.0" chargeDelay="1.0">
        <param key="cost" value="8.0"/>
        <param key="power" value="5761.0"/>
        <param key="chargeDelay" value="1.0"/>
    </chargingStation>
   <chargingStation id="cs_81" lane=":B0_0_0" startPos="300.00" endPos="400.00" power="10065.0" chargeDelay="6.0">
        <param key="cost" value="10.0"/>
        <param key="power" value="10065.0"/>
        <param key="chargeDelay" value="6.0"/>
    </chargingStation>
   <chargingStation id="cs_82" lane=":B0_1" startPos="300.00" endPos="400.00" power="22454.0" chargeDelay="2.0">
        <param key="cost" value="13.0"/>
        <param key="power" value="22454.0"/>
        <param key="chargeDelay" value="2.0"/>
    </chargingStation>
   <chargingStation id="cs_83" lane=":B0_1_0" startPos="300.00" endPos="400.00" power="17825.0" chargeDelay="10.0">
        <param key="cost" value="7.0"/>
        <param key="power" value="17825.0"/>
        <param key="chargeDelay" value="10.0"/>
    </chargingStation>
   <chargingStation id="cs_84" lane=":B0_2" startPos="300.00" endPos="400.00" power="26933.0" chargeDelay="3.0">
        <param key="cost" value="8.0"/>
        <param key="power" value="26933.0"/>
        <param key="chargeDelay" value="3.0"/>
    </chargingStation>
   <chargingStation id="cs_85" lane=":B0_2_0" startPos="300.00" endPos="400.00" power="42650.0" chargeDelay="8.0">
        <param key="cost" value="14.0"/>
        <param key="power" value="42650.0"/>
        <param key="chargeDelay" value="8.0"/>
    </chargingStation>
   <chargingStation id="cs_86" lane=":B0_3" startPos="300.00" endPos="400.00" power="19663.0" chargeDelay="3.0">
        <param key="cost" value="13.0"/>
        <param key="power" value="19663.0"/>
        <param key="chargeDelay" value="3.0"/>
    </chargingStation>
   <chargingStation id="cs_87" lane=":B0_3_0" startPos="300.00" endPos="400.00" power="23253.0" chargeDelay="10.0">
        <param key="cost" value="8.0"/>
        <param key="power" value="23253.0"/>
        <param key="chargeDelay" value="10.0"/>
    </chargingStation>
   <chargingStation id="cs_88" lane=":B0_4" startPos="300.00" endPos="400.00" power="22214.0" chargeDelay="1.0">
        <param key="cost" value="10.0"/>
        <param key="power" value="22214.0"/>
        <param key="chargeDelay" value="1.0"/>
    </chargingStation>
   <chargingStation id="cs_89" lane=":B0_4_0" startPos="300.00" endPos="400.00" power="49497.0" chargeDelay="10.0">
        <param key="cost" value="12.0"/>
        <param key="power" value="49497.0"/>
        <param key="chargeDelay" value="10.0"/>
    </chargingStation>
   <chargingStation id="cs_90" lane=":B0_5" startPos="300.00" endPos="400.00" power="18801.0" chargeDelay="2.0">
        <param key="cost" value="8.0"/>
        <param key="power" value="18801.0"/>
        <param key="chargeDelay" value="2.0"/>
    </chargingStation>
   <chargingStation id="cs_91" lane=":B0_5_0" startPos="300.00" endPos="400.00" power="19744.0" chargeDelay="9.0">
        <param key="cost" value="6.0"/>
        <param key="power" value="19744.0"/>
        <param key="chargeDelay" value="9.0"/>
    </chargingStation>
   <chargingStation id="cs_92" lane=":B0_9" startPos="300.00" endPos="400.00" power="40143.0" chargeDelay="2.0">
        <param key="cost" value="11.0"/>
        <param key="power" value="40143.0"/>
        <param key="chargeDelay" value="2.0"/>
    </chargingStation>
   <chargingStation id="cs_93" lane=":B0_9_0" startPos="300.00" endPos="400.00" power="41965.0" chargeDelay="6.0">
        <param key="cost" value="12.0"/>
        <param key="power" value="41965.0"/>
        <param key="chargeDelay" value="6.0"/>
    </chargingStation>
   <chargingStation id="cs_94" lane=":B0_6" startPos="300.00" endPos="400.00" power="8659.0" chargeDelay="7.0">
        <param key="cost" value="10.0"/>
        <param key="power" value="8659.0"/>
        <param key="chargeDelay" value="7.0"/>
    </chargingStation>
   <chargingStation id="cs_95" lane=":B0_6_0" startPos="300.00" endPos="400.00" power="20571.0" chargeDelay="4.0">
        <param key="cost" value="8.0"/>
        <param key="power" value="20571.0"/>
        <param key="chargeDelay" value="4.0"/>
    </chargingStation>
   <chargingStation id="cs_96" lane=":B0_7" startPos="300.00" endPos="400.00" power="3309.0" chargeDelay="6.0">
        <param key="cost" value="12.0"/>
        <param key="power" value="3309.0"/>
        <param key="chargeDelay" value="6.0"/>
    </chargingStation>
   <chargingStation id="cs_97" lane=":B0_7_0" startPos="300.00" endPos="400.00" power="49394.0" chargeDelay="2.0">
        <param key="cost" value="12.0"/>
        <param key="power" value="49394.0"/>
        <param key="chargeDelay" value="2.0"/>
    </chargingStation>
   <chargingStation id="cs_98" lane=":B0_8" startPos="300.00" endPos="400.00" power="34112.0" chargeDelay="2.0">
        <param key="cost" value="15.0"/>
        <param key="power" value="34112.0"/>
        <param key="chargeDelay" value="2.0"/>
    </chargingStation>
   <chargingStation id="cs_99" lane=":B0_8_0" startPos="300.00" endPos="400.00" power="41404.0" chargeDelay="9.0">
        <param key="cost" value="11.0"/>
        <param key="power" value="41404.0"/>
        <param key="chargeDelay" value="9.0"/>
    </chargingStation>
   <chargingStation id="cs_100" lane=":B0_10" startPos="300.00" endPos="400.00" power="13622.0" chargeDelay="1.0">
        <param key="cost" value="13.0"/>
        <param key="power" value="13622.0"/>
        <param key="chargeDelay" value="1.0"/>
    </chargingStation>
   <chargingStation id="cs_101" lane=":B0_10_0" startPos="300.00" endPos="400.00" power="49911.0" chargeDelay="9.0">
        <param key="cost" value="7.0"/>
        <param key="power" value="49911.0"/>
        <param key="chargeDelay" value="9.0"/>
    </chargingStation>
   <chargingStation id="cs_102" lane=":B0_11" startPos="300.00" endPos="400.00" power="37325.0" chargeDelay="7.0">
        <param key="cost" value="7.0"/>
        <param key="power" value="37325.0"/>
        <param key="chargeDelay" value="7.0"/>
    </chargingStation>
   <chargingStation id="cs_103" lane=":B0_11_0" startPos="300.00" endPos="400.00" power="46149.0" chargeDelay="8.0">
        <param key="cost" value="11.0"/>
        <param key="power" value="46149.0"/>
        <param key="chargeDelay" value="8.0"/>
    </chargingStation>
   <chargingStation id="cs_104" lane=":B1_0" startPos="300.00" endPos="400.00" power="41432.0" chargeDelay="2.0">
        <param key="cost" value="13.0"/>
        <param key="power" value="41432.0"/>
        <param key="chargeDelay" value="2.0"/>
    </chargingStation>
   <chargingStation id="cs_105" lane=":B1_0_0" startPos="300.00" endPos="400.00" power="14662.0" chargeDelay="3.0">
        <param key="cost" value="9.0"/>
        <param key="power" value="14662.0"/>
        <param key="chargeDelay" value="3.0"/>
    </chargingStation>
   <chargingStation id="cs_106" lane=":B1_1" startPos="300.00" endPos="400.00" power="19824.0" chargeDelay="5.0">
        <param key="cost" value="9.0"/>
        <param key="power" value="19824.0"/>
        <param key="chargeDelay" value="5.0"/>
    </chargingStation>
   <chargingStation id="cs_107" lane=":B1_1_0" startPos="300.00" endPos="400.00" power="38026.0" chargeDelay="6.0">
        <param key="cost" value="11.0"/>
        <param key="power" value="38026.0"/>
        <param key="chargeDelay" value="6.0"/>
    </chargingStation>
   <chargingStation id="cs_108" lane=":B1_2" startPos="300.00" endPos="400.00" power="2931.0" chargeDelay="10.0">
        <param key="cost" value="5.0"/>
        <param key="power" value="2931.0"/>
        <param key="chargeDelay" value="10.0"/>
    </chargingStation>
   <chargingStation id="cs_109" lane=":B1_2_0" startPos="300.00" endPos="400.00" power="3739.0" chargeDelay="5.0">
        <param key="cost" value="11.0"/>
        <param key="power" value="3739.0"/>
        <param key="chargeDelay" value="5.0"/>
    </chargingStation>
   <chargingStation id="cs_110" lane=":B1_3" startPos="300.00" endPos="400.00" power="41924.0" chargeDelay="5.0">
        <param key="cost" value="14.0"/>
        <param key="power" value="41924.0"/>
        <param key="chargeDelay" value="5.0"/>
    </chargingStation>