<?xml version="1.0" encoding="UTF-8"?>

<additional>
   <chargingStation id="cs_332" lane="A0A1_0" startPos="26.88" endPos="62.71999999999999" power="25425.0" chargeDelay="6.0">
                <param key="cost" value="12.0"/>
                <param key="power" value="25425.0"/>
                <param key="chargeDelay" value="6.0"/>
                </chargingStation>
   <chargingStation id="cs_333" lane="A0B0_0" startPos="26.88" endPos="62.71999999999999" power="31767.0" chargeDelay="2.0">
                <param key="cost" value="9.0"/>
                <param key="power" value="31767.0"/>
                <param key="chargeDelay" value="2.0"/>
                </chargingStation>
   <chargingStation id="cs_334" lane="A1A0_0" startPos="26.88" endPos="62.71999999999999" power="2201.0" chargeDelay="3.0">
                <param key="cost" value="10.0"/>
                <param key="power" value="2201.0"/>
                <param key="chargeDelay" value="3.0"/>
                </chargingStation>
   <chargingStation id="cs_335" lane="A1A2_0" startPos="25.679999999999996" endPos="59.919999999999995" power="13754.0" chargeDelay="6.0">
                <param key="cost" value="13.0"/>
                <param key="power" value="13754.0"/>
                <param key="chargeDelay" value="6.0"/>
                </chargingStation>
   <chargingStation id="cs_336" lane="A1B1_0" startPos="25.679999999999996" endPos="59.919999999999995" power="40834.0" chargeDelay="3.0">
                <param key="cost" value="15.0"/>
                <param key="power" value="40834.0"/>
                <param key="chargeDelay" value="3.0"/>
                </chargingStation>
   <chargingStation id="cs_337" lane="A2A1_0" startPos="25.679999999999996" endPos="59.919999999999995" power="25576.0" chargeDelay="1.0">
                <param key="cost" value="6.0"/>
                <param key="power" value="25576.0"/>
                <param key="chargeDelay" value="1.0"/>
                </chargingStation>
   <chargingStation id="cs_338" lane="A2A3_0" startPos="25.679999999999996" endPos="59.919999999999995" power="3875.0" chargeDelay="6.0">
                <param key="cost" value="13.0"/>
                <param key="power" value="3875.0"/>
                <param key="chargeDelay" value="6.0"/>
                </chargingStation>
   <chargingStation id="cs_339" lane="A2B2_0" startPos="25.679999999999996" endPos="59.919999999999995" power="9744.0" chargeDelay="7.0">
                <param key="cost" value="11.0"/>
                <param key="power" value="9744.0"/>
                <param key="chargeDelay" value="7.0"/>
                </chargingStation>
   <chargingStation id="cs_340" lane="A3A2_0" startPos="25.679999999999996" endPos="59.919999999999995" power="16706.0" chargeDelay="6.0">
                <param key="cost" value="7.0"/>
                <param key="power" value="16706.0"/>
                <param key="chargeDelay" value="6.0"/>
                </chargingStation>
   <chargingStation id="cs_341" lane="A3A4_0" startPos="26.88" endPos="62.71999999999999" power="10380.0" chargeDelay="9.0">
                <param key="cost" value="10.0"/>
                <param key="power" value="10380.0"/>
                <param key="chargeDelay" value="9.0"/>
                </chargingStation>
   <chargingStation id="cs_342" lane="A3B3_0" startPos="25.679999999999996" endPos="59.919999999999995" power="33853.0" chargeDelay="7.0">
                <param key="cost" value="10.0"/>
                <param key="power" value="33853.0"/>
                <param key="chargeDelay" value="7.0"/>
                </chargingStation>
   <chargingStation id="cs_343" lane="A4A3_0" startPos="26.88" endPos="62.71999999999999" power="44275.0" chargeDelay="6.0">
                <param key="cost" value="7.0"/>
                <param key="power" value="44275.0"/>
                <param key="chargeDelay" value="6.0"/>
                </chargingStation>
   <chargingStation id="cs_344" lane="A4B4_0" startPos="26.88" endPos="62.71999999999999" power="42617.0" chargeDelay="8.0">
                <param key="cost" value="13.0"/>
                <param key="power" value="42617.0"/>
                <param key="chargeDelay" value="8.0"/>
                </chargingStation>
   <chargingStation id="cs_345" lane="B0A0_0" startPos="26.88" endPos="62.71999999999999" power="48268.0" chargeDelay="10.0">
                <param key="cost" value="9.0"/>
                <param key="power" value="48268.0"/>
                <param key="chargeDelay" value="10.0"/>
                </chargingStation>
   <chargingStation id="cs_346" lane="B0B1_0" startPos="25.679999999999996" endPos="59.919999999999995" power="27589.0" chargeDelay="3.0">
                <param key="cost" value="8.0"/>
                <param key="power" value="27589.0"/>
                <param key="chargeDelay" value="3.0"/>
                </chargingStation>
   <chargingStation id="cs_347" lane="B0C0_0" startPos="25.679999999999996" endPos="59.919999999999995" power="43313.0" chargeDelay="10.0">
                <param key="cost" value="10.0"/>
                <param key="power" value="43313.0"/>
                <param key="chargeDelay" value="10.0"/>
                </chargingStation>
   <chargingStation id="cs_348" lane="B1A1_0" startPos="25.679999999999996" endPos="59.919999999999995" power="1750.0" chargeDelay="2.0">
                <param key="cost" value="11.0"/>
                <param key="power" value="1750.0"/>
                <param key="chargeDelay" value="2.0"/>
                </chargingStation>
   <chargingStation id="cs_349" lane="B1B0_0" startPos="25.679999999999996" endPos="59.919999999999995" power="21087.0" chargeDelay="7.0">
                <param key="cost" value="12.0"/>
                <param key="power" value="21087.0"/>
                <param key="chargeDelay" value="7.0"/>
                </chargingStation>
   <chargingStation id="cs_350" lane="B1B2_0" startPos="25.679999999999996" endPos="59.919999999999995" power="20544.0" chargeDelay="6.0">
                <param key="cost" value="15.0"/>
                <param key="power" value="20544.0"/>
                <param key="chargeDelay" value="6.0"/>
                </chargingStation>
   <chargingStation id="cs_351" lane="B1C1_0" startPos="25.679999999999996" endPos="59.919999999999995" power="39260.0" chargeDelay="8.0">
                <param key="cost" value="10.0"/>
                <param key="power" value="39260.0"/>
                <param key="chargeDelay" value="8.0"/>
                </chargingStation>
   <chargingStation id="cs_352" lane="B2A2_0" startPos="25.679999999999996" endPos="59.919999999999995" power="11425.0" chargeDelay="7.0">
                <param key="cost" value="9.0"/>
                <param key="power" value="11425.0"/>
                <param key="chargeDelay" value="7.0"/>
                </chargingStation>
   <chargingStation id="cs_353" lane="B2B1_0" startPos="25.679999999999996" endPos="59.919999999999995" power="44300.0" chargeDelay="5.0">
                <param key="cost" value="7.0"/>
                <param key="power" value="44300.0"/>
                <param key="chargeDelay" value="5.0"/>
                </chargingStation>
   <chargingStation id="cs_354" lane="B2B3_0" startPos="25.679999999999996" endPos="59.919999999999995" power="32995.0" chargeDelay="5.0">
                <param key="cost" value="8.0"/>
                <param key="power" value="32995.0"/>
                <param key="chargeDelay" value="5.0"/>
                </chargingStation>
   <chargingStation id="cs_355" lane="B2C2_0" startPos="25.679999999999996" endPos="59.919999999999995" power="43398.0" chargeDelay="7.0">
                <param key="cost" value="7.0"/>
                <param key="power" value="43398.0"/>
                <param key="chargeDelay" value="7.0"/>
                </chargingStation>
   <chargingStation id="cs_356" lane="B3A3_0" startPos="25.679999999999996" endPos="59.919999999999995" power="34921.0" chargeDelay="4.0">
                <param key="cost" value="10.0"/>
                <param key="power" value="34921.0"/>
                <param key="chargeDelay" value="4.0"/>
                </chargingStation>
   <chargingStation id="cs_357" lane="B3B2_0" startPos="25.679999999999996" endPos="59.919999999999995" power="46727.0" chargeDelay="3.0">
                <param key="cost" value="7.0"/>
                <param key="power" value="46727.0"/>
                <param key="chargeDelay" value="3.0"/>
                </chargingStation>
   <chargingStation id="cs_358" lane="B3B4_0" startPos="25.679999999999996" endPos="59.919999999999995" power="25195.0" chargeDelay="8.0">
                <param key="cost" value="15.0"/>
                <param key="power" value="25195.0"/>
                <param key="chargeDelay" value="8.0"/>
                </chargingStation>
   <chargingStation id="cs_359" lane="B3C3_0" startPos="25.679999999999996" endPos="59.919999999999995" power="3525.0" chargeDelay="10.0">
                <param key="cost" value="6.0"/>
                <param key="power" value="3525.0"/>
                <param key="chargeDelay" value="10.0"/>
                </chargingStation>
   <chargingStation id="cs_360" lane="B4A4_0" startPos="26.88" endPos="62.71999999999999" power="31728.0" chargeDelay="1.0">
                <param key="cost" value="11.0"/>
                <param key="power" value="31728.0"/>
                <param key="chargeDelay" value="1.0"/>
                </chargingStation>
   <chargingStation id="cs_361" lane="B4B3_0" startPos="25.679999999999996" endPos="59.919999999999995" power="35900.0" chargeDelay="6.0">
                <param key="cost" value="7.0"/>
                <param key="power" value="35900.0"/>
                <param key="chargeDelay" value="6.0"/>
                </chargingStation>
   <chargingStation id="cs_362" lane="B4C4_0" startPos="25.679999999999996" endPos="59.919999999999995" power="10079.0" chargeDelay="6.0">
                <param key="cost" value="14.0"/>
                <param key="power" value="10079.0"/>
                <param key="chargeDelay" value="6.0"/>
                </chargingStation>
   <chargingStation id="cs_363" lane="C0B0_0" startPos="25.679999999999996" endPos="59.919999999999995" power="17844.0" chargeDelay="4.0">
                <param key="cost" value="9.0"/>
                <param key="power" value="17844.0"/>
                <param key="chargeDelay" value="4.0"/>
                </chargingStation>
   <chargingStation id="cs_364" lane="C0C1_0" startPos="25.679999999999996" endPos="59.919999999999995" power="26046.0" chargeDelay="8.0">
                <param key="cost" value="14.0"/>
                <param key="power" value="26046.0"/>
                <param key="chargeDelay" value="8.0"/>
                </chargingStation>
   <chargingStation id="cs_365" lane="C0D0_0" startPos="25.679999999999996" endPos="59.919999999999995" power="42246.0" chargeDelay="2.0">
                <param key="cost" value="15.0"/>
                <param key="power" value="42246.0"/>
                <param key="chargeDelay" value="2.0"/>
                </chargingStation>
   <chargingStation id="cs_366" lane="C1B1_0" startPos="25.679999999999996" endPos="59.919999999999995" power="3574.0" chargeDelay="2.0">
                <param key="cost" value="5.0"/>
                <param key="power" value="3574.0"/>
                <param key="chargeDelay" value="2.0"/>
                </chargingStation>
   <chargingStation id="cs_367" lane="C1C0_0" startPos="25.679999999999996" endPos="59.919999999999995" power="15442.0" chargeDelay="4.0">
                <param key="cost" value="11.0"/>
                <param key="power" value="15442.0"/>
                <param key="chargeDelay" value="4.0"/>
                </chargingStation>
   <chargingStation id="cs_368" lane="C1C2_0" startPos="25.679999999999996" endPos="59.919999999999995" power="49694.0" chargeDelay="7.0">
                <param key="cost" value="6.0"/>
                <param key="power" value="49694.0"/>
                <param key="chargeDelay" value="7.0"/>
                </chargingStation>
   <chargingStation id="cs_369" lane="C1D1_0" startPos="25.679999999999996" endPos="59.919999999999995" power="9170.0" chargeDelay="8.0">
                <param key="cost" value="6.0"/>
                <param key="power" value="9170.0"/>
                <param key="chargeDelay" value="8.0"/>
                </chargingStation>
   <chargingStation id="cs_370" lane="C2B2_0" startPos="25.679999999999996" endPos="59.919999999999995" power="4418.0" chargeDelay="4.0">
                <param key="cost" value="9.0"/>
                <param key="power" value="4418.0"/>
                <param key="chargeDelay" value="4.0"/>
                </chargingStation>
   <chargingStation id="cs_371" lane="C2C1_0" startPos="25.679999999999996" endPos="59.919999999999995" power="14203.0" chargeDelay="3.0">
                <param key="cost" value="13.0"/>
                <param key="power" value="14203.0"/>
                <param key="chargeDelay" value="3.0"/>
                </chargingStation>
   <chargingStation id="cs_372" lane="C2C3_0" startPos="25.679999999999996" endPos="59.919999999999995" power="31232.0" chargeDelay="3.0">
                <param key="cost" value="15.0"/>
                <param key="power" value="31232.0"/>
                <param key="chargeDelay" value="3.0"/>
                </chargingStation>
   <chargingStation id="cs_373" lane="C2D2_0" startPos="25.679999999999996" endPos="59.919999999999995" power="27676.0" chargeDelay="2.0">
                <param key="cost" value="13.0"/>
                <param key="power" value="27676.0"/>
                <param key="chargeDelay" value="2.0"/>
                </chargingStation>
   <chargingStation id="cs_374" lane="C3B3_0" startPos="25.679999999999996" endPos="59.919999999999995" power="28772.0" chargeDelay="9.0">
                <param key="cost" value="5.0"/>
                <param key="power" value="28772.0"/>
                <param key="chargeDelay" value="9.0"/>
                </chargingStation>
   <chargingStation id="cs_375" lane="C3C2_0" startPos="25.679999999999996" endPos="59.919999999999995" power="21268.0" chargeDelay="8.0">
                <param key="cost" value="7.0"/>
                <param key="power" value="21268.0"/>
                <param key="chargeDelay" value="8.0"/>
                </chargingStation>
   <chargingStation id="cs_376" lane="C3C4_0" startPos="25.679999999999996" endPos="59.919999999999995" power="45807.0" chargeDelay="9.0">
                <param key="cost" value="5.0"/>
                <param key="power" value="45807.0"/>
                <param key="chargeDelay" value="9.0"/>
                </chargingStation>
   <chargingStation id="cs_377" lane="C3D3_0" startPos="25.679999999999996" endPos="59.919999999999995" power="16481.0" chargeDelay="9.0">
                <param key="cost" value="5.0"/>
                <param key="power" value="16481.0"/>
                <param key="chargeDelay" value="9.0"/>
                </chargingStation>
   <chargingStation id="cs_378" lane="C4B4_0" startPos="25.679999999999996" endPos="59.919999999999995" power="49655.0" chargeDelay="7.0">
                <param key="cost" value="13.0"/>
                <param key="power" value="49655.0"/>
                <param key="chargeDelay" value="7.0"/>
                </chargingStation>
   <chargingStation id="cs_379" lane="C4C3_0" startPos="25.679999999999996" endPos="59.919999999999995" power="19880.0" chargeDelay="7.0">
                <param key="cost" value="6.0"/>
                <param key="power" value="19880.0"/>
                <param key="chargeDelay" value="7.0"/>
                </chargingStation>
   <chargingStation id="cs_380" lane="C4D4_0" startPos="25.679999999999996" endPos="59.919999999999995" power="14620.0" chargeDelay="3.0">
                <param key="cost" value="7.0"/>
                <param key="power" value="14620.0"/>
                <param key="chargeDelay" value="3.0"/>
                </chargingStation>
   <chargingStation id="cs_381" lane="D0C0_0" startPos="25.679999999999996" endPos="59.919999999999995" power="17229.0" chargeDelay="3.0">
                <param key="cost" value="14.0"/>
                <param key="power" value="17229.0"/>
                <param key="chargeDelay" value="3.0"/>
                </chargingStation>
   <chargingStation id="cs_382" lane="D0D1_0" startPos="25.679999999999996" endPos="59.919999999999995" power="43482.0" chargeDelay="8.0">
                <param key="cost" value="14.0"/>
                <param key="power" value="43482.0"/>
                <param key="chargeDelay" value="8.0"/>
                </chargingStation>
   <chargingStation id="cs_383" lane="D0E0_0" startPos="26.88" endPos="62.71999999999999" power="3266.0" chargeDelay="6.0">
                <param key="cost" value="9.0"/>
                <param key="power" value="3266.0"/>
                <param key="chargeDelay" value="6.0"/>
                </chargingStation>
   <chargingStation id="cs_384" lane="D1C1_0" startPos="25.679999999999996" endPos="59.919999999999995" power="10762.0" chargeDelay="4.0">
                <param key="cost" value="15.0"/>
                <param key="power" value="10762.0"/>
                <param key="chargeDelay" value="4.0"/>
                </chargingStation>
   <chargingStation id="cs_385" lane="D1D0_0" startPos="25.679999999999996" endPos="59.919999999999995" power="46044.0" chargeDelay="4.0">
                <param key="cost" value="9.0"/>
                <param key="power" value="46044.0"/>
                <param key="chargeDelay" value="4.0"/>
                </chargingStation>
   <chargingStation id="cs_386" lane="D1D2_0" startPos="25.679999999999996" endPos="59.919999999999995" power="6169.0" chargeDelay="5.0">
                <param key="cost" value="10.0"/>
                <param key="power" value="6169.0"/>
                <param key="chargeDelay" value="5.0"/>
                </chargingStation>
   <chargingStation id="cs_387" lane="D1E1_0" startPos="25.679999999999996" endPos="59.919999999999995" power="29444.0" chargeDelay="8.0">
                <param key="cost" value="14.0"/>
                <param key="power" value="29444.0"/>
                <param key="chargeDelay" value="8.0"/>
                </chargingStation>
   <chargingStation id="cs_388" lane="D2C2_0" startPos="25.679999999999996" endPos="59.919999999999995" power="30878.0" chargeDelay="6.0">
                <param key="cost" value="13.0"/>
                <param key="power" value="30878.0"/>
                <param key="chargeDelay" value="6.0"/>
                </chargingStation>
   <chargingStation id="cs_389" lane="D2D1_0" startPos="25.679999999999996" endPos="59.919999999999995" power="33958.0" chargeDelay="3.0">
                <param key="cost" value="7.0"/>
                <param key="power" value="33958.0"/>
                <param key="chargeDelay" value="3.0"/>
                </chargingStation>
   <chargingStation id="cs_390" lane="D2D3_0" startPos="25.679999999999996" endPos="59.919999999999995" power="45428.0" chargeDelay="7.0">
                <param key="cost" value="5.0"/>
                <param key="power" value="45428.0"/>
                <param key="chargeDelay" value="7.0"/>
                </chargingStation>
   <chargingStation id="cs_391" lane="D2E2_0" startPos="25.679999999999996" endPos="59.919999999999995" power="27006.0" chargeDelay="1.0">
                <param key="cost" value="14.0"/>
                <param key="power" value="27006.0"/>
                <param key="chargeDelay" value="1.0"/>
                </chargingStation>
   <chargingStation id="cs_392" lane="D3C3_0" startPos="25.679999999999996" endPos="59.919999999999995" power="14660.0" chargeDelay="5.0">
                <param key="cost" value="9.0"/>
                <param key="power" value="14660.0"/>
                <param key="chargeDelay" value="5.0"/>
                </chargingStation>
   <chargingStation id="cs_393" lane="D3D2_0" startPos="25.679999999999996" endPos="59.919999999999995" power="13213.0" chargeDelay="6.0">
                <param key="cost" value="8.0"/>
                <param key="power" value="13213.0"/>
                <param key="chargeDelay" value="6.0"/>
                </chargingStation>
   <chargingStation id="cs_394" lane="D3D4_0" startPos="25.679999999999996" endPos="59.919999999999995" power="2822.0" chargeDelay="5.0">
                <param key="cost" value="8.0"/>
                <param key="power" value="2822.0"/>
                <param key="chargeDelay" value="5.0"/>
                </chargingStation>
   <chargingStation id="cs_395" lane="D3E3_0" startPos="25.679999999999996" endPos="59.919999999999995" power="21407.0" chargeDelay="7.0">
                <param key="cost" value="9.0"/>
                <param key="power" value="21407.0"/>
                <param key="chargeDelay" value="7.0"/>
                </chargingStation>
   <chargingStation id="cs_396" lane="D4C4_0" startPos="25.679999999999996" endPos="59.919999999999995" power="24161.0" chargeDelay="10.0">
                <param key="cost" value="8.0"/>
                <param key="power" value="24161.0"/>
                <param key="chargeDelay" value="10.0"/>
                </chargingStation>
   <chargingStation id="cs_397" lane="D4D3_0" startPos="25.679999999999996" endPos="59.919999999999995" power="6436.0" chargeDelay="9.0">
                <param key="cost" value="13.0"/>
                <param key="power" value="6436.0"/>
                <param key="chargeDelay" value="9.0"/>
                </chargingStation>
   <chargingStation id="cs_398" lane="D4E4_0" startPos="26.88" endPos="62.71999999999999" power="36943.0" chargeDelay="5.0">
                <param key="cost" value="5.0"/>
                <param key="power" value="36943.0"/>
                <param key="chargeDelay" value="5.0"/>
                </chargingStation>
   <chargingStation id="cs_399" lane="E0D0_0" startPos="26.88" endPos="62.71999999999999" power="36651.0" chargeDelay="2.0">
                <param key="cost" value="12.0"/>
                <param key="power" value="36651.0"/>
                <param key="chargeDelay" value="2.0"/>
                </chargingStation>
   <chargingStation id="cs_400" lane="E0E1_0" startPos="26.88" endPos="62.71999999999999" power="45973.0" chargeDelay="7.0">
                <param key="cost" value="6.0"/>
                <param key="power" value="45973.0"/>
                <param key="chargeDelay" value="7.0"/>
                </chargingStation>
   <chargingStation id="cs_401" lane="E1D1_0" startPos="25.679999999999996" endPos="59.919999999999995" power="21989.0" chargeDelay="10.0">
                <param key="cost" value="12.0"/>
                <param key="power" value="21989.0"/>
                <param key="chargeDelay" value="10.0"/>
                </chargingStation>
   <chargingStation id="cs_402" lane="E1E0_0" startPos="26.88" endPos="62.71999999999999" power="9458.0" chargeDelay="9.0">
                <param key="cost" value="5.0"/>
                <param key="power" value="9458.0"/>
                <param key="chargeDelay" value="9.0"/>
                </chargingStation>
   <chargingStation id="cs_403" lane="E1E2_0" startPos="25.679999999999996" endPos="59.919999999999995" power="5443.0" chargeDelay="9.0">
                <param key="cost" value="9.0"/>
                <param key="power" value="5443.0"/>
                <param key="chargeDelay" value="9.0"/>
                </chargingStation>
   <chargingStation id="cs_404" lane="E2D2_0" startPos="25.679999999999996" endPos="59.919999999999995" power="33542.0" chargeDelay="8.0">
                <param key="cost" value="5.0"/>
                <param key="power" value="33542.0"/>
                <param key="chargeDelay" value="8.0"/>
                </chargingStation>
   <chargingStation id="cs_405" lane="E2E1_0" startPos="25.679999999999996" endPos="59.919999999999995" power="37311.0" chargeDelay="4.0">
                <param key="cost" value="14.0"/>
                <param key="power" value="37311.0"/>
                <param key="chargeDelay" value="4.0"/>
                </chargingStation>
   <chargingStation id="cs_406" lane="E2E3_0" startPos="25.679999999999996" endPos="59.919999999999995" power="10405.0" chargeDelay="4.0">
                <param key="cost" value="12.0"/>
                <param key="power" value="10405.0"/>
                <param key="chargeDelay" value="4.0"/>
                </chargingStation>
   <chargingStation id="cs_407" lane="E3D3_0" startPos="25.679999999999996" endPos="59.919999999999995" power="44690.0" chargeDelay="4.0">
                <param key="cost" value="14.0"/>
                <param key="power" value="44690.0"/>
                <param key="chargeDelay" value="4.0"/>
                </chargingStation>
   <chargingStation id="cs_408" lane="E3E2_0" startPos="25.679999999999996" endPos="59.919999999999995" power="35143.0" chargeDelay="10.0">
                <param key="cost" value="10.0"/>
                <param key="power" value="35143.0"/>
                <param key="chargeDelay" value="10.0"/>
                </chargingStation>
   <chargingStation id="cs_409" lane="E3E4_0" startPos="26.88" endPos="62.71999999999999" power="40887.0" chargeDelay="4.0">
                <param key="cost" value="9.0"/>
                <param key="power" value="40887.0"/>
                <param key="chargeDelay" value="4.0"/>
                </chargingStation>
   <chargingStation id="cs_410" lane="E4D4_0" startPos="26.88" endPos="62.71999999999999" power="48676.0" chargeDelay="4.0">
                <param key="cost" value="10.0"/>
                <param key="power" value="48676.0"/>
                <param key="chargeDelay" value="4.0"/>
                </chargingStation>
   <chargingStation id="cs_411" lane="E4E3_0" startPos="26.88" endPos="62.71999999999999" power="32281.0" chargeDelay="5.0">
                <param key="cost" value="6.0"/>
                <param key="power" value="32281.0"/>
                <param key="chargeDelay" value="5.0"/>
                </chargingStation>
</additional>
